#### CIF created by Crystallographica 2 ####

data_MolybdenumDiselenideHighpressureHightemperaturePhasePolymorph

_audit_creation_method                    'Crystallographica 2' 
_cell_angle_alpha                         90 
_cell_angle_beta                          90 
_cell_angle_gamma                         120 
_cell_formula_units_Z                     3 
_cell_length_a                            3.292 
_cell_length_b                            3.292 
_cell_length_c                            19.392 
_cell_volume                              182.001 
_cgraph_comments                         'Molybdenum Diselenide: Rhombohedral High Pressure - High 
     Temperature Polymorph
'
_cgraph_title                            'Molybdenum Diselenide - High-pressure High-temperature Phase Polymorph'
_chemical_formula_sum                    'Mo Se2'
_symmetry_space_group_name_H-M           'R 3 m'
_symmetry_space_group_name_Hall          ' R 3 -2"'

loop_
        _symmetry_equiv_pos_as_xyz
        'x, y, z'
        'x-1/3, y+1/3, z+1/3'
        'x+1/3, y-1/3, z-1/3'
        '-y, x-y, z'
        '-y-1/3, x-y+1/3, z+1/3'
        '-y+1/3, x-y-1/3, z-1/3'
        '-x+y, -x, z'
        '-x+y-1/3, -x+1/3, z+1/3'
        '-x+y+1/3, -x-1/3, z-1/3'
        '-x+y, y, z'
        '-x+y-1/3, y+1/3, z+1/3'
        '-x+y+1/3, y-1/3, z-1/3'
        'x, x-y, z'
        'x-1/3, x-y+1/3, z+1/3'
        'x+1/3, x-y-1/3, z-1/3'
        '-y, -x, z'
        '-y-1/3, -x+1/3, z+1/3'
        '-y+1/3, -x-1/3, z-1/3'

loop_
        _atom_site_label
        _atom_site_type_symbol
        _atom_site_fract_x
        _atom_site_fract_y
        _atom_site_fract_z
        _atom_site_U_iso_or_equiv
        _atom_site_thermal_displace_type
        _atom_site_occupancy
        Mo1 Mo 0.3333 0.6667 0 0 Uiso 1
        Se1 Se 0.6667 0.3333 0.083 0 Uiso 1
        Se2 Se 0.3333 0.6667 0.25 0 Uiso 1

_eof

#### End of Crystallographic Information File ####
